@<TRIPOS>MOLECULE
2src_ligand
44   46    1
SMALL
USER_CHARGES


@<TRIPOS>ATOM
      1 PG         10.8530   19.1150   59.7040 P.3       1 ANP         0.0000 
      2 O1G        10.0910   17.8950   59.2120 O.co2     1 ANP         0.0000 
      3 O2G        11.6050   19.8620   58.6260 O.co2     1 ANP         0.0000 
      4 O3G        10.0760   20.0170   60.6300 O.co2     1 ANP         0.0000 
      5 PB         13.4370   17.6900   60.3530 P.3       1 ANP         0.0000 
      6 O1B        13.0480   16.2480   60.5240 O.co2     1 ANP         0.0000 
      7 O2B        14.6220   18.0050   61.1540 O.co2     1 ANP         0.0000 
      8 N3B        12.0690   18.4630   60.7010 N.pl3     1 ANP         0.0000 
      9 PA         14.4540   18.7530   57.5800 P.3       1 ANP         0.0000 
     10 O1A        13.6860   18.4690   56.3040 O.co2     1 ANP         0.0000 
     11 O2A        14.3740   20.1890   58.0450 O.co2     1 ANP         0.0000 
     12 O3A        13.9990   17.7460   58.7680 O.3       1 ANP         0.0000 
     13 O5'        15.9740   18.2830   57.4370 O.3       1 ANP         0.0000 
     14 C5'        16.6900   18.5590   58.6400 C.3       1 ANP         0.0000 
     15 C4'        18.0730   17.9160   58.5170 C.3       1 ANP         0.0000 
     16 O4'        18.8600   18.8550   57.8210 O.3       1 ANP         0.0000 
     17 C3'        18.8570   17.8160   59.7720 C.3       1 ANP         0.0000 
     18 O3'        19.9430   16.9770   59.4480 O.3       1 ANP         0.0000 
     19 C2'        19.4650   19.2230   59.9260 C.3       1 ANP         0.0000 
     20 O2'        20.7060   19.2850   60.5770 O.3       1 ANP         0.0000 
     21 C1'        19.7320   19.7010   58.5530 C.3       1 ANP         0.0000 
     22 N9         19.6290   21.1900   58.3340 N.pl3     1 ANP         0.0000 
     23 C8         18.4840   21.8850   58.1720 C.ar      1 ANP         0.0000 
     24 N7         18.7290   23.1800   58.0010 N.2       1 ANP         0.0000 
     25 C5         20.0600   23.3060   58.0520 C.ar      1 ANP         0.0000 
     26 C6         20.8380   24.4980   57.9270 C.ar      1 ANP         0.0000 
     27 N6         20.2040   25.6890   57.7210 N.pl3     1 ANP         0.0000 
     28 N1         22.2110   24.4110   58.0130 N.ar      1 ANP         0.0000 
     29 C2         22.7240   23.1670   58.2240 C.ar      1 ANP         0.0000 
     30 N3         21.9970   22.0420   58.3500 N.ar      1 ANP         0.0000 
     31 C4         20.6470   22.0660   58.2730 C.ar      1 ANP         0.0000 
     32 HN3B       11.9904   18.5339   61.7054 H         1 ANP         0.0000 
     33 H5'1       16.1603   18.1212   59.4861 H         1 ANP         0.0000 
     34 H5'2       16.8002   19.6370   58.7574 H         1 ANP         0.0000 
     35 HC4'       18.0280   16.9612   57.9932 H         1 ANP         0.0000 
     36 HC3'       18.2784   17.4836   60.6339 H         1 ANP         0.0000 
     37 HO3'       20.4540   17.3738   58.7388 H         1 ANP         0.0000 
     38 HC2'       18.7526   19.8846   60.4187 H         1 ANP         0.0000 
     39 HO2'       21.1423   20.1114   60.3571 H         1 ANP         0.0000 
     40 HC1'       20.7514   19.4079   58.3021 H         1 ANP         0.0000 
     41 HC8        17.5336   21.3724   58.1927 H         1 ANP         0.0000 
     42 H6_1       20.7424   26.5388   57.6310 H         1 ANP         0.0000 
     43 H6_2       19.1964   25.7206   57.6586 H         1 ANP         0.0000 
     44 HC2        23.7924   23.0296   58.3024 H         1 ANP         0.0000 
@<TRIPOS>BOND
     1    1    2 2    
     2    1    3 1    
     3    1    4 1    
     4    1    8 1    
     5    5    6 2    
     6    5    7 1    
     7    5    8 1    
     8    5   12 1    
     9    8   32 1    
    10    9   10 2    
    11    9   11 1    
    12    9   12 1    
    13    9   13 1    
    14   13   14 1    
    15   14   15 1    
    16   14   33 1    
    17   14   34 1    
    18   15   16 1    
    19   15   17 1    
    20   15   35 1    
    21   16   21 1    
    22   17   18 1    
    23   17   19 1    
    24   17   36 1    
    25   18   37 1    
    26   19   20 1    
    27   19   21 1    
    28   19   38 1    
    29   20   39 1    
    30   21   22 1    
    31   21   40 1    
    32   22   23 ar   
    33   22   31 ar   
    34   23   24 ar   
    35   23   41 1    
    36   24   25 ar   
    37   25   26 ar   
    38   25   31 ar   
    39   26   27 1    
    40   26   28 ar   
    41   27   42 1    
    42   27   43 1    
    43   28   29 ar   
    44   29   30 ar   
    45   29   44 1    
    46   30   31 ar   
@<TRIPOS>SUBSTRUCTURE
     1 ANP         1 GROUP             0 A     ****    0 ROOT    
