2src_ligand
                    3D
 Schrodinger Suite 2021-3.
 44 46  0  0  1  0            999 V2000
   10.8530   19.1150   59.7040 P   0  0  0  0  0  0
   10.0910   17.8950   59.2120 O   0  0  0  0  0  0
   11.6050   19.8620   58.6260 O   0  5  0  0  0  0
   10.0760   20.0170   60.6300 O   0  5  0  0  0  0
   13.4370   17.6900   60.3530 P   0  0  0  0  0  0
   13.0480   16.2480   60.5240 O   0  0  0  0  0  0
   14.6220   18.0050   61.1540 O   0  5  0  0  0  0
   12.0690   18.4630   60.7010 N   0  0  3  0  0  0
   14.4540   18.7530   57.5800 P   0  0  0  0  0  0
   13.6860   18.4690   56.3040 O   0  0  0  0  0  0
   14.3740   20.1890   58.0450 O   0  5  0  0  0  0
   13.9990   17.7460   58.7680 O   0  0  0  0  0  0
   15.9740   18.2830   57.4370 O   0  0  0  0  0  0
   16.6900   18.5590   58.6400 C   0  0  0  0  0  0
   18.0730   17.9160   58.5170 C   0  0  1  0  0  0
   18.8600   18.8550   57.8210 O   0  0  0  0  0  0
   18.8570   17.8160   59.7720 C   0  0  1  0  0  0
   19.9430   16.9770   59.4480 O   0  0  0  0  0  0
   19.4650   19.2230   59.9260 C   0  0  1  0  0  0
   20.7060   19.2850   60.5770 O   0  0  0  0  0  0
   19.7320   19.7010   58.5530 C   0  0  2  0  0  0
   19.6290   21.1900   58.3340 N   0  0  0  0  0  0
   18.4840   21.8850   58.1720 C   0  0  0  0  0  0
   18.7290   23.1800   58.0010 N   0  0  0  0  0  0
   20.0600   23.3060   58.0520 C   0  0  0  0  0  0
   20.8380   24.4980   57.9270 C   0  0  0  0  0  0
   20.2040   25.6890   57.7210 N   0  0  0  0  0  0
   22.2110   24.4110   58.0130 N   0  0  0  0  0  0
   22.7240   23.1670   58.2240 C   0  0  0  0  0  0
   21.9970   22.0420   58.3500 N   0  0  0  0  0  0
   20.6470   22.0660   58.2730 C   0  0  0  0  0  0
   11.9904   18.5339   61.7054 H   0  0  0  0  0  0
   16.1603   18.1212   59.4861 H   0  0  0  0  0  0
   16.8002   19.6370   58.7574 H   0  0  0  0  0  0
   18.0280   16.9612   57.9932 H   0  0  0  0  0  0
   18.2784   17.4836   60.6339 H   0  0  0  0  0  0
   20.4540   17.3738   58.7388 H   0  0  0  0  0  0
   18.7526   19.8846   60.4187 H   0  0  0  0  0  0
   21.1423   20.1114   60.3571 H   0  0  0  0  0  0
   20.7514   19.4079   58.3021 H   0  0  0  0  0  0
   17.5336   21.3724   58.1927 H   0  0  0  0  0  0
   20.7424   26.5388   57.6310 H   0  0  0  0  0  0
   19.1964   25.7206   57.6586 H   0  0  0  0  0  0
   23.7924   23.0296   58.3024 H   0  0  0  0  0  0
  1  2  2  0  0  0
  1  3  1  0  0  0
  1  4  1  0  0  0
  1  8  1  0  0  0
  5  6  2  0  0  0
  5  7  1  0  0  0
  5  8  1  0  0  0
  5 12  1  0  0  0
  8 32  1  0  0  0
  9 10  2  0  0  0
  9 11  1  0  0  0
  9 12  1  0  0  0
  9 13  1  0  0  0
 13 14  1  0  0  0
 14 15  1  0  0  0
 14 33  1  0  0  0
 14 34  1  0  0  0
 15 16  1  0  0  0
 15 17  1  0  0  0
 15 35  1  0  0  0
 16 21  1  0  0  0
 17 18  1  0  0  0
 17 19  1  0  0  0
 17 36  1  0  0  0
 18 37  1  0  0  0
 19 20  1  0  0  0
 19 21  1  0  0  0
 19 38  1  0  0  0
 20 39  1  0  0  0
 21 22  1  0  0  0
 21 40  1  0  0  0
 22 23  1  0  0  0
 22 31  1  0  0  0
 23 24  2  0  0  0
 23 41  1  0  0  0
 24 25  1  0  0  0
 25 26  1  0  0  0
 25 31  2  0  0  0
 26 27  1  0  0  0
 26 28  2  0  0  0
 27 42  1  0  0  0
 27 43  1  0  0  0
 28 29  1  0  0  0
 29 30  2  0  0  0
 29 44  1  0  0  0
 30 31  1  0  0  0
M  CHG  4   3  -1   4  -1   7  -1  11  -1
M  END
> <i_m_stars>
0

> <s_m_entry_id>
996

> <s_m_entry_name>
Structure996

> <s_pdb_PDB_TITLE>
CRYSTAL STRUCTURE OF HUMAN TYROSINE-PROTEIN KINASE C-SRC, IN COMPLEX WITH AMP-PNP

> <s_pdb_PDB_ID>
2SRC

> <r_pdb_PDB_CRYST1_a>
50.59

> <r_pdb_PDB_CRYST1_b>
72.97

> <r_pdb_PDB_CRYST1_c>
172.69

> <r_pdb_PDB_CRYST1_alpha>
90

> <r_pdb_PDB_CRYST1_beta>
90

> <r_pdb_PDB_CRYST1_gamma>
90

> <s_pdb_PDB_CRYST1_Space_Group>
P 21 21 21

> <i_pdb_PDB_CRYST1_z>
4

> <s_pdb_PDB_CLASSIFICATION>
TYROSINE-PROTEIN KINASE

> <s_pdb_PDB_DEPOSITION_DATE>
29-DEC-98

> <s_pdb_PDB_format_version>
3.15

> <r_pdb_PDB_R>
0.226

> <r_pdb_PDB_Rfree>
0.281

> <r_pdb_PDB_RESOLUTION>
1.5

> <s_pdb_PDB_EXPDTA>
X-RAY DIFFRACTION

> <r_pdb_PDB_EXPDTA_PH>
6.5

> <s_pdb_PDB_REMARK_350_Biomolecule_1_Transform_1_Chains>
A

> <s_pdb_PDB_REMARK_350_Biomolecule_1_Transform_1_Matrix_1>
1.000000 0.000000 0.000000   0.000000;0.000000 1.000000 0.000000   0.000000;0.000000 0.000000 1.000000   0.000000

> <s_m_Source_Path>
D:\msc\VS\DEKOIS_2.0x\src\src_prot

> <s_m_Source_File>
2src.pdb

> <i_m_Source_File_Index>
1

> <s_ppw_entry_id_backup>
994

> <b_ppw_prepared>
1

> <s_ppw_prepared_with_version>
2021-3

> <b_ppw_assigned_bond_orders>
1

> <b_ppw_added_hydrogens>
1

> <b_ppw_treated_metals>
1

> <b_ppw_created_disulfur>
1

> <s_psp_EXECUTE_FUNCTION_Input_Structure_Hash>
a094fec965a383d77a317517b49435c4891d4a3f9da6d38b9cd3a4e9

> <s_ppw_het_states>
eJztmEFTwjAQhf9Kpmdam92ktHDz5NXx6HBgkJMIHurBYfjvNknT1xQR5WCVSU/bl03fJlu+SdknMpmJx+biQuqJyBcTYcIC4RRhibDqQsoRSoSEkBEqhHAjuBHcCG4EN4Ybw43hxnBjuDHcGG4MN4Ybw03BTcFNwU3BTcFNWTcTt9vqdpTavXNC4y0DoRwIZgslttvtNAWCHGYcTSk6wbTBdYACQQ8zjqagUhO6zkg0yfVHolWuS6GASs2Ya4hEH10LQ4Eh2DpMO0Oh9wy7Y4zSTegaHAiqN8WuxfSd8Aq47vsMW7rKh4Lupii7FoXFtQIhg6yAtShbukIbTOgLaxSaZlQ2N/vEVNT8OL2QmIcN7lV3f5iIlKgdeaiX9Vq8rrfLTf3uMirxvFpubl52m7m4S2932yex2r1t65lQc3E/E3liX9cvMZD6V6vsxSdB4DO+RYIuOaIgoiCiwKFAZiTzqocCI0gGCnyCR4Ebb1Cgs2lZ5RWuT6hgkk9CQVsopGoEKnQZ8YAwFhVCQQ8xEakQqfATKpz9ZohHhX8AhXhU+NNQ4LKQARQaQfeh4BIABTPeQIGzQpoKj0HA574ZUv59EMTTweggiKeDCIILQODD+OfBtYAgngiuEgT6EhDo0UAQTwSjgyCeCCIIjkGwOHwArhX10w==

> <b_ppw_ran_protassign>
1

> <b_ppw_deleted_far_waters>
1

> <r_pdb_PDB_EXPDTA_TEMPERATURE>
100

$$$$
