@<TRIPOS>MOLECULE
3mhw_ligand
16   17    1
SMALL
USER_CHARGES


@<TRIPOS>ATOM
      1 C1        -29.5790  -17.6000    9.0430 C.ar      1 ABV         0.0000 
      2 N1        -30.4030  -19.8040   11.6350 N.2       1 ABV         0.0000 
      3 S1        -31.6130  -19.1420    9.4990 S.3       1 ABV         0.0000 
      4 C2        -28.4240  -17.0880    9.4690 C.ar      1 ABV         0.0000 
      5 N2        -32.4300  -20.9140   11.2400 N.pl3     1 ABV         0.0000 
      6 C3        -27.8510  -17.4600   10.6270 C.ar      1 ABV         0.0000 
      7 C4        -28.4280  -18.4020   11.4040 C.ar      1 ABV         0.0000 
      8 C5        -29.5950  -18.9180   11.0100 C.ar      1 ABV         0.0000 
      9 C6        -30.1590  -18.4920    9.8400 C.ar      1 ABV         0.0000 
     10 C7        -31.4920  -20.0710   10.8950 C.2       1 ABV         0.0000 
     11 HC1       -29.9929  -17.2850    8.0965 H         1 ABV         0.0000 
     12 HC2       -27.9118  -16.3443    8.8766 H         1 ABV         0.0000 
     13 H2_1      -33.2222  -21.0647   10.6319 H         1 ABV         0.0000 
     14 H2_2      -32.3624  -21.4145   12.1146 H         1 ABV         0.0000 
     15 HC3       -26.9234  -17.0048   10.9412 H         1 ABV         0.0000 
     16 HC4       -27.9456  -18.7188   12.3169 H         1 ABV         0.0000 
@<TRIPOS>BOND
     1    1    4 ar   
     2    1    9 ar   
     3    1   11 1    
     4    2    8 1    
     5    2   10 2    
     6    3    9 1    
     7    3   10 1    
     8    4    6 ar   
     9    4   12 1    
    10    5   10 1    
    11    5   13 1    
    12    5   14 1    
    13    6    7 ar   
    14    6   15 1    
    15    7    8 ar   
    16    7   16 1    
    17    8    9 ar   
@<TRIPOS>SUBSTRUCTURE
     1 ABV         1 GROUP             0 U     ****    0 ROOT    
