@<TRIPOS>MOLECULE
3pp0_ligand
53   56    1
SMALL
USER_CHARGES


@<TRIPOS>ATOM
      1 O1         12.9040   15.4160   27.6660 O.3       1 03Q        -0.6568 
      2 C2         12.7010   15.4320   29.0830 C.3       1 03Q         0.1304 
      3 C3         13.6420   14.4880   29.8430 C.3       1 03Q         0.1388 
      4 O4         14.2820   13.5780   28.9490 O.3       1 03Q        -0.4651 
      5 C5         14.3860   12.2360   29.4150 C.3       1 03Q         0.1252 
      6 C6         15.2870   11.5040   28.4250 C.3       1 03Q        -0.0597 
      7 N7         16.7110   11.4550   28.8350 N.pl3     1 03Q        -0.0021 
      8 C8         17.2480   10.4260   29.5520 C.ar      1 03Q        -0.1193 
      9 C9         18.5700   10.6210   29.7440 C.ar      1 03Q        -0.4882 
     10 C10        18.9150   11.8710   29.0910 C.ar      1 03Q         0.5357 
     11 N11        20.0600   12.5660   28.9470 N.ar      1 03Q        -0.4957 
     12 C12        20.0730   13.7020   28.2760 C.ar      1 03Q         0.2308 
     13 N13        18.9650   14.2110   27.7290 N.ar      1 03Q        -0.4898 
     14 C14        17.7780   13.5830   27.8240 C.ar      1 03Q         0.4530 
     15 N15        16.6330   14.1290   27.2530 N.pl3     1 03Q        -0.6683 
     16 C16        16.6740   15.2830   26.4610 C.ar      1 03Q         0.1833 
     17 C17        15.8300   16.3470   26.7750 C.ar      1 03Q        -0.0186 
     18 N18        15.8160   17.4600   26.0650 N.ar      1 03Q        -0.3097 
     19 C19        16.6130   17.6270   25.0380 C.ar      1 03Q         0.2497 
     20 O20        16.5470   18.8100   24.3620 O.3       1 03Q        -0.2828 
     21 C21        17.3830   19.8530   24.6570 C.ar      1 03Q         0.1299 
     22 C22        18.4440   19.7380   25.5530 C.ar      1 03Q        -0.0977 
     23 C23        19.2830   20.8190   25.8100 C.ar      1 03Q        -0.1289 
     24 C24        19.0830   22.0330   25.1770 C.ar      1 03Q        -0.0820 
     25 C25        18.0320   22.1390   24.2780 C.ar      1 03Q        -0.0995 
     26 C26        17.1940   21.0640   24.0140 C.ar      1 03Q        -0.0751 
     27 C27        17.8170   23.4520   23.5920 C.3       1 03Q         0.4669 
     28 F28        16.8670   23.4020   22.5930 F         1 03Q        -0.1746 
     29 F29        19.0360   23.8760   23.0710 F         1 03Q        -0.1746 
     30 F30        17.3300   24.3620   24.4970 F         1 03Q        -0.1746 
     31 C31        17.4910   16.6020   24.6570 C.ar      1 03Q         0.0379 
     32 CL32       18.5300   16.8010   23.2920 Cl        1 03Q        -0.1118 
     33 C33        17.5300   15.4110   25.3730 C.ar      1 03Q        -0.0747 
     34 C34        17.7100   12.3580   28.5250 C.ar      1 03Q        -0.2273 
     35 HO1        12.4995   16.1942   27.2755 H         1 03Q         0.0000 
     36 H2_1       11.6670   15.1668   29.3034 H         1 03Q         0.0000 
     37 H2_2       12.8296   16.4483   29.4555 H         1 03Q         0.0000 
     38 H3_1       13.0727   13.9280   30.5849 H         1 03Q         0.0000 
     39 H3_2       14.3974   15.0733   30.3674 H         1 03Q         0.0000 
     40 H5_1       13.3983   11.7750   29.4153 H         1 03Q         0.0000 
     41 H5_2       14.8508   12.2298   30.4009 H         1 03Q         0.0000 
     42 H6_1       15.2086   11.9775   27.4464 H         1 03Q         0.0000 
     43 H6_2       14.9169   10.4888   28.2816 H         1 03Q         0.0000 
     44 HC8        16.6204    9.6098   29.8781 H         1 03Q         0.0000 
     45 HC9        19.1471    9.8982   30.3016 H         1 03Q         0.0000 
     46 HC12       20.9971   14.2480   28.1565 H         1 03Q         0.0000 
     47 HN15       15.7353   13.6916   27.4045 H         1 03Q         0.0000 
     48 HC17       15.1619   16.2750   27.6205 H         1 03Q         0.0000 
     49 HC22       18.6245   18.8010   26.0589 H         1 03Q         0.0000 
     50 HC23       20.0994   20.7146   26.5093 H         1 03Q         0.0000 
     51 HC24       19.7367   22.8663   25.3882 H         1 03Q         0.0000 
     52 HC26       16.3904   21.1774   23.3015 H         1 03Q         0.0000 
     53 HC33       18.1943   14.6010   25.1103 H         1 03Q         0.0000 
@<TRIPOS>BOND
     1    1    2 1    
     2    1   35 1    
     3    2    3 1    
     4    2   36 1    
     5    2   37 1    
     6    3    4 1    
     7    3   38 1    
     8    3   39 1    
     9    4    5 1    
    10    5    6 1    
    11    5   40 1    
    12    5   41 1    
    13    6    7 1    
    14    6   42 1    
    15    6   43 1    
    16    7    8 ar   
    17    7   34 ar   
    18    8    9 ar   
    19    8   44 1    
    20    9   10 ar   
    21    9   45 1    
    22   10   11 ar   
    23   10   34 ar   
    24   11   12 ar   
    25   12   13 ar   
    26   12   46 1    
    27   13   14 ar   
    28   14   15 1    
    29   14   34 ar   
    30   15   16 1    
    31   15   47 1    
    32   16   17 ar   
    33   16   33 ar   
    34   17   18 ar   
    35   17   48 1    
    36   18   19 ar   
    37   19   20 1    
    38   19   31 ar   
    39   20   21 1    
    40   21   22 ar   
    41   21   26 ar   
    42   22   23 ar   
    43   22   49 1    
    44   23   24 ar   
    45   23   50 1    
    46   24   25 ar   
    47   24   51 1    
    48   25   26 ar   
    49   25   27 1    
    50   26   52 1    
    51   27   28 1    
    52   27   29 1    
    53   27   30 1    
    54   31   32 1    
    55   31   33 ar   
    56   33   53 1    
@<TRIPOS>SUBSTRUCTURE
     1 03Q         1 GROUP             0 A     ****    0 ROOT    
