@<TRIPOS>MOLECULE

  51   54
SMALL
USER_CHARGES
@<TRIPOS>ATOM
   1 C1          20.1620    78.4560    84.9010 C.ar         1    LIG   0.0000
   2 C2          21.5200    78.7230    85.1260 C.ar         1    LIG   0.0000
   3 C3          22.5320    78.3440    84.1080 C.ar         1    LIG   0.0000
   4 C4          22.1480    77.7190    82.9240 C.ar         1    LIG   0.0000
   5 C5          20.7710    77.4480    82.6910 C.ar         1    LIG   0.0000
   6 C6          19.7650    77.8290    83.6730 C.ar         1    LIG   0.0000
   7 C7          23.8730    78.7630    84.6760 C.3          1    LIG   0.0000
   8 C8          23.5330    79.7380    85.7750 C.3          1    LIG   0.0000
   9 C9          24.5990    79.3840    83.4460 C.3          1    LIG   0.0000
  10 C10         26.1050    79.5550    83.7270 C.3          1    LIG   0.0000
  11 C11         26.0800    77.6780    85.4020 C.3          1    LIG   0.0000
  12 C12         24.5900    77.4580    85.1150 C.3          1    LIG   0.0000
  13 C13         20.3760    76.7790    81.3720 C.3          1    LIG   0.0000
  14 O14         22.2380    79.3280    86.2520 O.3          1    LIG   0.0000
  15 C15         27.6540    77.6010    83.4070 C.2          1    LIG   0.0000
  16 C16         28.2640    76.2490    83.8000 C.2          1    LIG   0.0000
  17 C17         29.3110    75.8770    83.0800 C.2          1    LIG   0.0000
  18 C18         28.9640    73.3450    83.4170 C.ar         1    LIG   0.0000
  19 N19         26.7090    78.3330    84.2530 N.am         1    LIG   0.0000
  20 C20         29.4330    72.0110    83.3110 C.ar         1    LIG   0.0000
  21 C21         30.7250    71.7440    82.7960 C.ar         1    LIG   0.0000
  22 C22         31.5610    72.8150    82.3680 C.ar         1    LIG   0.0000
  23 C23         31.0880    74.1560    82.4730 C.ar         1    LIG   0.0000
  24 N24         20.0340    77.8340    80.4360 N.4          1    LIG   1.0000
  25 O25         28.0690    78.1310    82.4300 O.2          1    LIG   0.0000
  26 C26         29.8040    74.4230    82.9980 C.ar         1    LIG   0.0000
  27 H27         19.4284    78.7219    85.6477 H            1    LIG   0.0000
  28 H28         22.8931    77.4444    82.1921 H            1    LIG   0.0000
  29 H29         18.7201    77.6395    83.4766 H            1    LIG   0.0000
  30 H30         23.4632    80.7427    85.3580 H            1    LIG   0.0000
  31 H31         24.2614    79.6433    86.5803 H            1    LIG   0.0000
  32 H32         24.1599    80.3551    83.2176 H            1    LIG   0.0000
  33 H33         24.4627    78.7371    82.5794 H            1    LIG   0.0000
  34 H34         26.2509    80.3671    84.4392 H            1    LIG   0.0000
  35 H35         26.6146    79.8448    82.8081 H            1    LIG   0.0000
  36 H36         26.5613    76.7164    85.5801 H            1    LIG   0.0000
  37 H37         26.1906    78.3081    86.2845 H            1    LIG   0.0000
  38 H38         24.4785    76.7037    84.3361 H            1    LIG   0.0000
  39 H39         24.1043    77.0598    86.0059 H            1    LIG   0.0000
  40 H40         19.5064    76.1423    81.5344 H            1    LIG   0.0000
  41 H41         21.2225    76.2115    80.9854 H            1    LIG   0.0000
  42 H42         27.8360    75.6788    84.6112 H            1    LIG   0.0000
  43 H43         29.8643    76.6107    82.5125 H            1    LIG   0.0000
  44 H44         27.9782    73.5410    83.8122 H            1    LIG   0.0000
  45 H45         28.8038    71.1909    83.6240 H            1    LIG   0.0000
  46 H46         31.0790    70.7260    82.7269 H            1    LIG   0.0000
  47 H47         32.5427    72.6073    81.9686 H            1    LIG   0.0000
  48 H48         31.7126    74.9758    82.1501 H            1    LIG   0.0000
  49 H49         19.7674    77.4264    79.5512 H            1    LIG   0.0000
  50 H50         19.2634    78.3738    80.8033 H            1    LIG   0.0000
  51 H51         20.8329    78.4371    80.3012 H            1    LIG   0.0000
@<TRIPOS>BOND
   1        1        2 ar
   2        1        6 ar
   3        1       27 1
   4        2        3 ar
   5        2       14 1
   6        3        4 ar
   7        3        7 1
   8        4        5 ar
   9        4       28 1
  10        5        6 ar
  11        5       13 1
  12        6       29 1
  13        7        8 1
  14        7        9 1
  15        7       12 1
  16        8       14 1
  17        8       30 1
  18        8       31 1
  19        9       10 1
  20        9       32 1
  21        9       33 1
  22       10       19 1
  23       10       34 1
  24       10       35 1
  25       11       12 1
  26       11       19 1
  27       11       36 1
  28       11       37 1
  29       12       38 1
  30       12       39 1
  31       13       24 1
  32       13       40 1
  33       13       41 1
  34       15       16 1
  35       15       19 am
  36       15       25 2
  37       16       17 2
  38       16       42 1
  39       17       26 1
  40       17       43 1
  41       18       20 ar
  42       18       26 ar
  43       18       44 1
  44       20       21 ar
  45       20       45 1
  46       21       22 ar
  47       21       46 1
  48       22       23 ar
  49       22       47 1
  50       23       26 ar
  51       23       48 1
  52       24       49 1
  53       24       50 1
  54       24       51 1

