
                    3D
 Schrodinger Suite 2021-2.
 51 54  0  0  1  0            999 V2000
   20.1620   78.4560   84.9010 C   0  0  0  0  0  0
   21.5200   78.7230   85.1260 C   0  0  0  0  0  0
   22.5320   78.3440   84.1080 C   0  0  0  0  0  0
   22.1480   77.7190   82.9240 C   0  0  0  0  0  0
   20.7710   77.4480   82.6910 C   0  0  0  0  0  0
   19.7650   77.8290   83.6730 C   0  0  0  0  0  0
   23.8730   78.7630   84.6760 C   0  0  0  0  0  0
   23.5330   79.7380   85.7750 C   0  0  0  0  0  0
   24.5990   79.3840   83.4460 C   0  0  0  0  0  0
   26.1050   79.5550   83.7270 C   0  0  0  0  0  0
   26.0800   77.6780   85.4020 C   0  0  0  0  0  0
   24.5900   77.4580   85.1150 C   0  0  0  0  0  0
   20.3760   76.7790   81.3720 C   0  0  0  0  0  0
   22.2380   79.3280   86.2520 O   0  0  0  0  0  0
   27.6540   77.6010   83.4070 C   0  0  0  0  0  0
   28.2640   76.2490   83.8000 C   0  0  0  0  0  0
   29.3110   75.8770   83.0800 C   0  0  0  0  0  0
   28.9640   73.3450   83.4170 C   0  0  0  0  0  0
   26.7090   78.3330   84.2530 N   0  0  0  0  0  0
   29.4330   72.0110   83.3110 C   0  0  0  0  0  0
   30.7250   71.7440   82.7960 C   0  0  0  0  0  0
   31.5610   72.8150   82.3680 C   0  0  0  0  0  0
   31.0880   74.1560   82.4730 C   0  0  0  0  0  0
   20.0340   77.8340   80.4360 N   0  3  0  0  0  0
   28.0690   78.1310   82.4300 O   0  0  0  0  0  0
   29.8040   74.4230   82.9980 C   0  0  0  0  0  0
   19.4284   78.7219   85.6477 H   0  0  0  0  0  0
   22.8931   77.4444   82.1921 H   0  0  0  0  0  0
   18.7201   77.6395   83.4766 H   0  0  0  0  0  0
   23.4632   80.7427   85.3580 H   0  0  0  0  0  0
   24.2614   79.6433   86.5803 H   0  0  0  0  0  0
   24.1599   80.3551   83.2176 H   0  0  0  0  0  0
   24.4627   78.7371   82.5794 H   0  0  0  0  0  0
   26.2509   80.3671   84.4392 H   0  0  0  0  0  0
   26.6146   79.8448   82.8081 H   0  0  0  0  0  0
   26.5613   76.7164   85.5801 H   0  0  0  0  0  0
   26.1906   78.3081   86.2845 H   0  0  0  0  0  0
   24.4785   76.7037   84.3361 H   0  0  0  0  0  0
   24.1043   77.0598   86.0059 H   0  0  0  0  0  0
   19.5064   76.1423   81.5344 H   0  0  0  0  0  0
   21.2225   76.2115   80.9854 H   0  0  0  0  0  0
   27.8360   75.6788   84.6112 H   0  0  0  0  0  0
   29.8643   76.6107   82.5125 H   0  0  0  0  0  0
   27.9782   73.5410   83.8122 H   0  0  0  0  0  0
   28.8038   71.1909   83.6240 H   0  0  0  0  0  0
   31.0790   70.7260   82.7269 H   0  0  0  0  0  0
   32.5427   72.6073   81.9686 H   0  0  0  0  0  0
   31.7126   74.9758   82.1501 H   0  0  0  0  0  0
   19.7674   77.4264   79.5512 H   0  0  0  0  0  0
   19.2634   78.3738   80.8033 H   0  0  0  0  0  0
   20.8329   78.4371   80.3012 H   0  0  0  0  0  0
  1  2  1  0  0  0
  1  6  2  0  0  0
  1 27  1  0  0  0
  2  3  2  0  0  0
  2 14  1  0  0  0
  3  4  1  0  0  0
  3  7  1  0  0  0
  4  5  2  0  0  0
  4 28  1  0  0  0
  5  6  1  0  0  0
  5 13  1  0  0  0
  6 29  1  0  0  0
  7  8  1  0  0  0
  7  9  1  0  0  0
  7 12  1  0  0  0
  8 14  1  0  0  0
  8 30  1  0  0  0
  8 31  1  0  0  0
  9 10  1  0  0  0
  9 32  1  0  0  0
  9 33  1  0  0  0
 10 19  1  0  0  0
 10 34  1  0  0  0
 10 35  1  0  0  0
 11 12  1  0  0  0
 11 19  1  0  0  0
 11 36  1  0  0  0
 11 37  1  0  0  0
 12 38  1  0  0  0
 12 39  1  0  0  0
 13 24  1  0  0  0
 13 40  1  0  0  0
 13 41  1  0  0  0
 15 16  1  0  0  0
 15 19  1  0  0  0
 15 25  2  0  0  0
 16 17  2  0  0  0
 16 42  1  0  0  0
 17 26  1  0  0  0
 17 43  1  0  0  0
 18 20  1  0  0  0
 18 26  2  0  0  0
 18 44  1  0  0  0
 20 21  2  0  0  0
 20 45  1  0  0  0
 21 22  1  0  0  0
 21 46  1  0  0  0
 22 23  2  0  0  0
 22 47  1  0  0  0
 23 26  1  0  0  0
 23 48  1  0  0  0
 24 49  1  0  0  0
 24 50  1  0  0  0
 24 51  1  0  0  0
M  CHG  1  24   1
M  END
> <s_pdb_PDB_format_version>
3.0

> <b_ppw_prepared>
1

> <s_ppw_prepared_with_version>
2021-2

$$$$
