BDB12915
  SciTegic10041214373D

 40 43  0  0  0  0            999 V2000
    1.1970   -0.6200    0.3500 C   0  0
    1.2740    0.7370    0.0550 C   0  0
    0.1070    1.4600   -0.2050 C   0  0
   -1.1600    0.8430   -0.1760 C   0  0
   -2.3660    1.6470   -0.4470 C   0  0
   -2.5320    2.3060   -1.6770 C   0  0
   -3.6640    3.0860   -1.9290 C   0  0
   -4.6510    3.2190   -0.9550 C   0  0
   -4.5060    2.5720    0.2700 C   0  0
   -3.3720    1.7940    0.5220 C   0  0
   -0.0520   -1.2470    0.3810 C   0  0
   -1.2200   -0.5340    0.1210 C   0  0
   -0.1550   -2.6750    0.6910 C   0  0
   -2.5850   -2.4960    0.4340 C   0  0
   -1.5070   -3.2510    0.7070 C   0  0
   -2.4530   -1.1400    0.1300 O   0  0
    0.8280   -3.3650    0.9280 O   0  0
   -5.0610   -2.0980    0.1280 C   0  0
   -4.3260   -4.3490    0.7410 C   0  0
   -5.2090   -4.8940   -0.3890 C   0  0
   -5.9150   -2.7270   -0.9790 C   0  0
   -3.9040   -2.9690    0.4290 N   0  0
   -6.3430   -4.0470   -0.6160 O   0  0
    2.1040   -1.1840    0.5540 H   0  0
    2.2400    1.2360    0.0300 H   0  0
    0.1900    2.5240   -0.4230 H   0  0
   -1.7760    2.2120   -2.4550 H   0  0
   -3.7740    3.5890   -2.8860 H   0  0
   -5.5290    3.8300   -1.1490 H   0  0
   -5.2720    2.6740    1.0340 H   0  0
   -3.2760    1.3040    1.4890 H   0  0
   -1.5520   -4.3020    0.9500 H   0  0
   -4.7680   -1.0920   -0.1830 H   0  0
   -5.6580   -1.9970    1.0430 H   0  0
   -3.4880   -5.0340    0.8890 H   0  0
   -4.8980   -4.3270    1.6760 H   0  0
   -5.5860   -5.8860   -0.1200 H   0  0
   -4.6420   -4.9920   -1.3220 H   0  0
   -6.8110   -2.1220   -1.1460 H   0  0
   -5.3620   -2.7770   -1.9250 H   0  0
  1  2  1  0
  1 11  2  0
  1 24  1  0
  2  3  2  0
  2 25  1  0
  3  4  1  0
  3 26  1  0
  4  5  1  0
  4 12  2  0
  5  6  1  0
  5 10  2  0
  6  7  2  0
  6 27  1  0
  7  8  1  0
  7 28  1  0
  8  9  2  0
  8 29  1  0
  9 10  1  0
  9 30  1  0
 10 31  1  0
 11 12  1  0
 11 13  1  0
 12 16  1  0
 13 15  1  0
 13 17  2  0
 14 15  2  0
 14 16  1  0
 14 22  1  0
 15 32  1  0
 18 21  1  0
 18 22  1  0
 18 33  1  0
 18 34  1  0
 19 20  1  0
 19 22  1  0
 19 35  1  0
 19 36  1  0
 20 23  1  0
 20 37  1  0
 20 38  1  0
 21 23  1  0
 21 39  1  0
 21 40  1  0
M  END
> <Name>
BDB12915

> <Target>
Phosphoinositide 3-Kinase (PI3K), gamma Chain A

> <Kd_from_ITC>
false

> <Uniprot_ID>
P48736

> <source_organism>
Homo sapiens

> <pdb_reference>
1E7V(96%)

> <IC50_in_nM>
1600
