BDB35585
  SciTegic10041214373D

 66 70  0  0  0  0            999 V2000
    1.3640   -0.5920   -0.2390 C   0  0
    1.2540    0.7730   -0.1310 N   0  0
    0.0450    1.3800   -0.0890 C   0  0
   -1.1410    0.7560   -0.1310 N   0  0
    0.1490   -1.3070   -0.2540 C   0  0
   -0.3060   -2.6450   -0.2710 C   0  0
   -1.0240   -0.5750   -0.2050 C   0  0
   -2.0560   -1.4750   -0.2340 N   0  0
   -1.6380   -2.7560   -0.2760 N   0  0
    2.6240   -1.1450   -0.3050 N   0  0
    4.9740   -2.5440    0.4200 O   0  0
    4.5990   -1.3530    1.1270 C   0  0
    3.7660   -0.4090    0.2480 C   0  0
    2.9660   -2.4020   -0.9650 C   0  0
    3.8100   -3.2610   -0.0180 C   0  0
    0.0090    2.8590    0.0100 C   0  0
    1.1760    3.6410   -0.0190 C   0  0
    1.1310    5.0450    0.0670 C   0  0
   -0.0860    5.7150    0.1890 C   0  0
   -1.2580    4.9530    0.2240 C   0  0
   -1.2090    3.5540    0.1350 C   0  0
   -3.4860   -1.1830   -0.2200 C   0  0
   -3.9130   -0.5280    1.1100 C   0  0
   -3.9140   -0.3730   -1.4620 C   0  0
   -5.3780    0.0430   -1.3760 C   0  0
   -5.6000    0.7170   -0.1030 N   0  0
   -5.3770   -0.1040    1.0760 C   0  0
   -0.2230    7.1200    0.2780 N   0  0
    0.7810    8.0730    0.2580 C   0  0
    0.2580    9.3540    0.3660 N   0  0
    1.9850    7.8660    0.1580 O   0  0
    1.1140   10.5140    0.3670 C   0  0
   -5.9280    2.0560    0.0280 C   0  0
   -6.0280    2.6920   -1.1750 O   0  0
   -6.0790    2.6280    1.1030 O   0  0
   -6.3060    4.0910   -1.0910 C   0  0
    0.2720   -3.5580   -0.2710 H   0  0
    5.5180   -0.8500    1.4440 H   0  0
    4.0460   -1.6370    2.0310 H   0  0
    3.4710    0.4530    0.8550 H   0  0
    4.3770   -0.0410   -0.5850 H   0  0
    2.1030   -2.9660   -1.3190 H   0  0
    3.5620   -2.1610   -1.8540 H   0  0
    4.1520   -4.1620   -0.5370 H   0  0
    3.2300   -3.5750    0.8580 H   0  0
    2.1500    3.1620   -0.1150 H   0  0
    2.0740    5.5830    0.0370 H   0  0
   -2.2300    5.4300    0.3190 H   0  0
   -2.1510    3.0070    0.1670 H   0  0
   -3.9940   -2.1560   -0.2790 H   0  0
   -3.7430   -1.2200    1.9440 H   0  0
   -3.3010    0.3590    1.3130 H   0  0
   -3.7450   -0.9610   -2.3710 H   0  0
   -3.3040    0.5330   -1.5580 H   0  0
   -5.6350    0.6810   -2.2260 H   0  0
   -6.0340   -0.8340   -1.4140 H   0  0
   -5.6300    0.4390    1.9920 H   0  0
   -6.0350   -0.9780    1.0140 H   0  0
   -1.1640    7.4730    0.3670 H   0  0
   -0.7390    9.4870    0.4460 H   0  0
    1.6790   10.5460   -0.5680 H   0  0
    1.8070   10.4500    1.2090 H   0  0
    0.4940   11.4090    0.4600 H   0  0
   -5.5030    4.6090   -0.5560 H   0  0
   -7.2710    4.2610   -0.6040 H   0  0
   -6.3570    4.4880   -2.1080 H   0  0
  1  2  1  0
  1  5  2  0
  1 10  1  0
  2  3  2  0
  3  4  1  0
  3 16  1  0
  4  7  2  0
  5  6  1  0
  5  7  1  0
  6  9  2  0
  6 37  1  0
  7  8  1  0
  8  9  1  0
  8 22  1  0
 10 13  1  0
 10 14  1  0
 11 12  1  0
 11 15  1  0
 12 13  1  0
 12 38  1  0
 12 39  1  0
 13 40  1  0
 13 41  1  0
 14 15  1  0
 14 42  1  0
 14 43  1  0
 15 44  1  0
 15 45  1  0
 16 17  1  0
 16 21  2  0
 17 18  2  0
 17 46  1  0
 18 19  1  0
 18 47  1  0
 19 20  2  0
 19 28  1  0
 20 21  1  0
 20 48  1  0
 21 49  1  0
 22 23  1  0
 22 24  1  0
 22 50  1  0
 23 27  1  0
 23 51  1  0
 23 52  1  0
 24 25  1  0
 24 53  1  0
 24 54  1  0
 25 26  1  0
 25 55  1  0
 25 56  1  0
 26 27  1  0
 26 33  1  0
 27 57  1  0
 27 58  1  0
 28 29  1  0
 28 59  1  0
 29 30  1  0
 29 31  2  0
 30 32  1  0
 30 60  1  0
 32 61  1  0
 32 62  1  0
 32 63  1  0
 33 34  1  0
 33 35  2  0
 34 36  1  0
 36 64  1  0
 36 65  1  0
 36 66  1  0
M  END
> <Name>
BDB35585

> <Target>
Phosphoinositide 3-Kinase (PI3K), gamma Chain A

> <Kd_from_ITC>
false

> <Uniprot_ID>
P48736

> <source_organism>
Homo sapiens

> <IC50_in_nM>
148
