@<TRIPOS>MOLECULE
3dbs_ligand
62   67    1
SMALL
USER_CHARGES


@<TRIPOS>ATOM
      1 O3         19.6860   59.5250   24.4390 O.3       1 GD9        -0.4449 
      2 C4         22.2550   61.7810   22.1080 C.ar      1 GD9         0.5762 
      3 C5         21.3750   65.3980   21.3670 C.2       1 GD9         0.0351 
      4 C6         22.5920   65.2050   20.8630 C.2       1 GD9        -0.4822 
      5 N1         24.1570   63.2850   20.7550 N.ar      1 GD9        -0.6009 
      6 C7         20.6910   66.7430   21.2780 C.3       1 GD9         0.0925 
      7 C8         25.6090   61.4690   20.6670 C.ar      1 GD9        -0.0885 
      8 N2         23.4480   61.2570   21.7200 N.ar      1 GD9        -0.5093 
      9 C9         19.9210   68.3930   19.6720 C.3       1 GD9         0.0667 
     10 C10        19.5300   68.5240   18.1960 C.3       1 GD9        -0.0629 
     11 C11        18.8850   66.2070   18.2080 C.3       1 GD9        -0.0629 
     12 C12        18.9810   66.1720   19.7140 C.3       1 GD9         0.0667 
     13 N3         21.3800   60.9900   22.8100 N.pl3     1 GD9        -0.4429 
     14 C13        17.2570   69.1770   15.8700 C.3       1 GD9        -0.3645 
     15 C14        21.9500   59.8880   23.5830 C.3       1 GD9        -0.0449 
     16 C15        21.0620   59.6020   24.7890 C.3       1 GD9         0.1282 
     17 N4         20.1610   66.9800   19.9550 N.3       1 GD9        -0.7077 
     18 O2         19.2330   67.3420   15.4530 O.2       1 GD9        -0.5152 
     19 S2         18.0130   67.5640   16.2420 S.o2      1 GD9         0.9147 
     20 O1         17.0380   66.4970   15.9810 O.2       1 GD9        -0.5152 
     21 N5         18.4720   67.5550   17.8980 N.pl3     1 GD9        -0.1821 
     22 S1         20.6610   64.0680   22.1100 S.3       1 GD9         0.0376 
     23 C2         22.9930   63.8290   21.1100 C.ar      1 GD9         0.7758 
     24 C1         22.0320   63.1230   21.7860 C.ar      1 GD9        -0.3463 
     25 C3         24.3750   61.9890   21.0520 C.ar      1 GD9         0.3744 
     26 C18        26.2540   61.9140   19.5170 C.ar      1 GD9        -0.1428 
     27 C19        27.4900   61.3820   19.1820 C.ar      1 GD9        -0.1311 
     28 C20        28.0880   60.4370   19.9900 C.ar      1 GD9        -0.2415 
     29 C21        27.4540   60.0120   21.1410 C.ar      1 GD9         0.1240 
     30 N6         27.8630   59.0900   22.0790 N.pl3     1 GD9        -0.2468 
     31 C22        26.2510   60.5350   21.4380 C.ar      1 GD9         0.1810 
     32 C23        25.8280   59.9200   22.6520 C.ar      1 GD9        -0.2697 
     33 N7         26.8030   59.0610   23.0310 N.2       1 GD9        -0.1323 
     34 C16        19.2500   60.7430   23.8500 C.3       1 GD9         0.1282 
     35 C17        19.9550   60.8890   22.5000 C.3       1 GD9        -0.0449 
     36 HC6        23.1067   66.0158   20.3690 H         1 GD9         0.0000 
     37 H7_1       21.4027   67.5293   21.5299 H         1 GD9         0.0000 
     38 H7_2       19.8813   66.7871   22.0064 H         1 GD9         0.0000 
     39 H9_1       19.1047   68.7548   20.2972 H         1 GD9         0.0000 
     40 H9_2       20.8331   68.9603   19.8576 H         1 GD9         0.0000 
     41 H101       20.3985   68.3171   17.5706 H         1 GD9         0.0000 
     42 H102       19.1627   69.5325   18.0059 H         1 GD9         0.0000 
     43 H111       18.1155   65.5088   17.8788 H         1 GD9         0.0000 
     44 H112       19.8700   66.0233   17.7789 H         1 GD9         0.0000 
     45 H121       19.1752   65.1492   20.0368 H         1 GD9         0.0000 
     46 H122       18.1113   66.6722   20.1401 H         1 GD9         0.0000 
     47 H131       16.3577   69.3049   16.4725 H         1 GD9         0.0000 
     48 H132       17.9650   69.9727   16.1015 H         1 GD9         0.0000 
     49 H133       16.9948   69.2208   14.8129 H         1 GD9         0.0000 
     50 H141       22.9484   60.1620   23.9241 H         1 GD9         0.0000 
     51 H142       22.0095   58.9979   22.9567 H         1 GD9         0.0000 
     52 H151       21.3710   58.6652   25.2526 H         1 GD9         0.0000 
     53 H152       21.2028   60.3831   25.5361 H         1 GD9         0.0000 
     54 HC18       25.7916   62.6665   18.8954 H         1 GD9         0.0000 
     55 HC19       27.9920   61.7070   18.2827 H         1 GD9         0.0000 
     56 HC20       29.0518   60.0297   19.7224 H         1 GD9         0.0000 
     57 HN6        28.7509   58.6206   21.9721 H         1 GD9         0.0000 
     58 HC23       24.8749   60.1826   23.0869 H         1 GD9         0.0000 
     59 H161       19.5255   61.5771   24.4953 H         1 GD9         0.0000 
     60 H162       18.1719   60.7051   23.6941 H         1 GD9         0.0000 
     61 H171       19.7775   59.9960   21.9007 H         1 GD9         0.0000 
     62 H172       19.6239   61.8080   22.0164 H         1 GD9         0.0000 
@<TRIPOS>BOND
     1    1   16 1    
     2    1   34 1    
     3    2    8 ar   
     4    2   13 1    
     5    2   24 ar   
     6    3    4 2    
     7    3    6 1    
     8    3   22 1    
     9    4   23 1    
    10    4   36 1    
    11    5   23 ar   
    12    5   25 ar   
    13    6   17 1    
    14    6   37 1    
    15    6   38 1    
    16    7   25 1    
    17    7   26 ar   
    18    7   31 ar   
    19    8   25 ar   
    20    9   10 1    
    21    9   17 1    
    22    9   39 1    
    23    9   40 1    
    24   10   21 1    
    25   10   41 1    
    26   10   42 1    
    27   11   12 1    
    28   11   21 1    
    29   11   43 1    
    30   11   44 1    
    31   12   17 1    
    32   12   45 1    
    33   12   46 1    
    34   13   15 1    
    35   13   35 1    
    36   14   19 1    
    37   14   47 1    
    38   14   48 1    
    39   14   49 1    
    40   15   16 1    
    41   15   50 1    
    42   15   51 1    
    43   16   52 1    
    44   16   53 1    
    45   18   19 2    
    46   19   20 2    
    47   19   21 1    
    48   22   24 1    
    49   23   24 ar   
    50   26   27 ar   
    51   26   54 1    
    52   27   28 ar   
    53   27   55 1    
    54   28   29 ar   
    55   28   56 1    
    56   29   30 ar   
    57   29   31 ar   
    58   30   33 ar   
    59   30   57 1    
    60   31   32 ar   
    61   32   33 ar   
    62   32   58 1    
    63   34   35 1    
    64   34   59 1    
    65   34   60 1    
    66   35   61 1    
    67   35   62 1    
@<TRIPOS>SUBSTRUCTURE
     1 GD9         1 GROUP             0 A     ****    0 ROOT    
